<?xml version="1.0" encoding="UTF-8"?>
<!DOCTYPE facilities SYSTEM "http://www.matsim.org/files/dtd/facilities_v1.dtd">
<facilities>

<!-- ====================================================================== -->

	<facility id="h0" x="1192.6089619304653" y="4074.271153639399">
	</facility>

<!-- ====================================================================== -->

	<facility id="pr0" x="897.8074931682742" y="1054.2337381433679">
	</facility>

<!-- ====================================================================== -->

	<facility id="stat.id.1" linkId="1314" x="1050.0" y="3950.0">
		<activity type="cs_station">
			<opentime day="wkday" start_time="00:00:00" end_time="23:59:59" />
		</activity>

	</facility>

<!-- ====================================================================== -->

	<facility id="stat.id.2" linkId="1112" x="1050.0" y="1050.0">
		<activity type="cs_station">
			<opentime day="wkday" start_time="00:00:00" end_time="23:59:59" />
		</activity>

	</facility>

<!-- ====================================================================== -->

	<facility id="w0" x="3861.2653399735054" y="863.2474521049934">
	</facility>

<!-- ====================================================================== -->

</facilities>
