<?xml version="1.0" encoding="utf-8"?>
<!DOCTYPE population SYSTEM "http://www.matsim.org/files/dtd/population_v5.dtd">

<population>

<!-- ====================================================================== -->

	<person id="c0">
		<plan selected="yes">
			<act type="h" link="1424" facility="h0" x="1192.6089619304653" y="4074.271153639399" end_time="08:00:00" />
			<leg mode="carsharingDirectTrip">
			</leg>
			<act type="parkride" link="1112" facility="pr0" x="897.8074931682742" y="1054.2337381433679" max_dur="00:00:01" />
			<leg mode="pt">
			</leg>
			<act type="w" link="3141" facility="w0" x="3861.2653399735054" y="863.2474521049934" end_time="17:00:00" />
			<leg mode="pt">
			</leg>
			<act type="parkride" link="1112" facility="pr0" x="897.8074931682742" y="1054.2337381433679" start_time="17:15:00" max_dur="00:00:01" />
			<leg mode="carsharingDirectTrip">
			</leg>
			<act type="h" link="1424" facility="h0" x="1192.6089619304653" y="4074.271153639399" start_time="18:00:00" />
		</plan>

	</person>

<!-- ====================================================================== -->

</population>
