<?xml version="1.0" encoding="UTF-8"?>
<!DOCTYPE facilities SYSTEM "http://www.matsim.org/files/dtd/facilities_v1.dtd">
<facilities>

<!-- ====================================================================== -->

	<facility id="S1" linkId="1112" x="1050.0" y="1050.0">
		<activity type="cs_station">
			<opentime day="wkday" start_time="00:00:00" end_time="23:59:59" />
		</activity>

	</facility>

<!-- ====================================================================== -->

	<facility id="S2" linkId="3444" x="3950.0" y="3950.0">
		<activity type="cs_station">
			<opentime day="wkday" start_time="00:00:00" end_time="23:59:59" />
		</activity>

	</facility>

<!-- ====================================================================== -->

	<facility id="hp1" x="1192.6089619304653" y="1174.2711536393992">
	</facility>

<!-- ====================================================================== -->

	<facility id="hp2" x="3861.2653399735054" y="3763.2474521049935">
	</facility>

<!-- ====================================================================== -->

	<facility id="hp3" x="3536.3633670795925" y="3840.0854926359157">
	</facility>

<!-- ====================================================================== -->

	<facility id="hp4" x="3836.773910362668" y="4392.0776849509975">
	</facility>

<!-- ====================================================================== -->

	<facility id="wp1" x="3797.807493168274" y="3954.233738143368">
	</facility>

<!-- ====================================================================== -->

	<facility id="wp2" x="826.6583591870739" y="1336.6054806037068">
	</facility>

<!-- ====================================================================== -->

	<facility id="wp3" x="995.5638939023602" y="890.5428457126961">
	</facility>

<!-- ====================================================================== -->

	<facility id="wp4" x="1396.4541510587512" y="775.8331756305737">
	</facility>

<!-- ====================================================================== -->

</facilities>
