<?xml version="1.0" encoding="utf-8"?>
<!DOCTYPE population SYSTEM "http://www.matsim.org/files/dtd/population_v5.dtd">

<population>

<!-- ====================================================================== -->

	<person id="p1">
		<plan selected="yes">
			<act type="h" link="1121" facility="hp1" x="1192.6089619304653" y="1174.2711536393992" end_time="08:00:00" />
			<leg mode="carsharingDirectTrip">
			</leg>
			<act type="w" link="3444" facility="wp1" x="3797.807493168274" y="3954.233738143368" end_time="17:00:00" />
			<leg mode="carsharingDirectTrip">
			</leg>
			<act type="h" link="1121" facility="hp1" x="1192.6089619304653" y="1174.2711536393992" start_time="17:05:00" />
		</plan>

	</person>

<!-- ====================================================================== -->

	<person id="p2">
		<plan selected="yes">
			<act type="h" link="4344" facility="hp2" x="3861.2653399735054" y="3763.2474521049935" end_time="08:30:00" />
			<leg mode="carsharingDirectTrip">
			</leg>
			<act type="w" link="1112" facility="wp2" x="826.6583591870739" y="1336.6054806037068" end_time="16:30:00" />
			<leg mode="carsharingDirectTrip">
			</leg>
			<act type="h" link="4344" facility="hp2" x="3861.2653399735054" y="3763.2474521049935" start_time="16:45:00" />
		</plan>

	</person>

<!-- ====================================================================== -->

	<person id="p3">
		<plan selected="yes">
			<act type="h" link="3444" facility="hp3" x="3536.3633670795925" y="3840.0854926359157" end_time="08:30:00" />
			<leg mode="carsharingDirectTrip">
			</leg>
			<act type="w" link="1112" facility="wp3" x="995.5638939023602" y="890.5428457126961" end_time="16:30:00" />
			<leg mode="carsharingDirectTrip">
			</leg>
			<act type="h" link="3444" facility="hp3" x="3536.3633670795925" y="3840.0854926359157" start_time="16:45:00" />
		</plan>

	</person>

<!-- ====================================================================== -->

	<person id="p4">
		<plan selected="yes">
			<act type="h" link="3444" facility="hp4" x="3836.773910362668" y="4392.0776849509975" end_time="17:00:00" />
			<leg mode="carsharingDirectTrip">
			</leg>
			<act type="w" link="1121" facility="wp4" x="1396.4541510587512" y="775.8331756305737" end_time="17:15:00" />
		</plan>

	</person>

<!-- ====================================================================== -->

</population>
