<?xml version="1.0" encoding="UTF-8"?>
<!DOCTYPE facilities SYSTEM "http://www.matsim.org/files/dtd/facilities_v1.dtd">
<facilities>

<!-- ====================================================================== -->

	<facility id="0h" x="879.1516838953671" y="1407.0990457341602">
	</facility>

<!-- ====================================================================== -->

	<facility id="100h" x="3598.705237733497" y="3701.659550422128">
	</facility>

<!-- ====================================================================== -->

	<facility id="101w" x="1080.26449714683" y="1193.6621305691292">
	</facility>

<!-- ====================================================================== -->

	<facility id="102h" x="3843.440243989125" y="3669.353335821463">
	</facility>

<!-- ====================================================================== -->

	<facility id="103w" x="929.6007575740094" y="994.9068889870216">
	</facility>

<!-- ====================================================================== -->

	<facility id="104h" x="4342.691565699864" y="4193.158969076797">
	</facility>

<!-- ====================================================================== -->

	<facility id="105w" x="1368.0978622661212" y="1092.4210142599732">
	</facility>

<!-- ====================================================================== -->

	<facility id="106h" x="871.2215923044699" y="1333.7730815238772">
	</facility>

<!-- ====================================================================== -->

	<facility id="107w" x="3796.8949970177414" y="4017.914657595873">
	</facility>

<!-- ====================================================================== -->

	<facility id="108h" x="625.8601613933993" y="937.4516519182881">
	</facility>

<!-- ====================================================================== -->

	<facility id="109w" x="3791.5022068428007" y="4060.3160701731017">
	</facility>

<!-- ====================================================================== -->

	<facility id="10h" x="880.3058819928061" y="858.5375001454695">
	</facility>

<!-- ====================================================================== -->

	<facility id="110h" x="4146.684557218895" y="4027.037834840925">
	</facility>

<!-- ====================================================================== -->

	<facility id="111w" x="1357.5588030328965" y="902.8466826559792">
	</facility>

<!-- ====================================================================== -->

	<facility id="112h" x="3818.0865509109044" y="3526.0414318517855">
	</facility>

<!-- ====================================================================== -->

	<facility id="113w" x="1364.659873971893" y="1389.5546795107794">
	</facility>

<!-- ====================================================================== -->

	<facility id="114h" x="4098.1732207313935" y="3903.322393858072">
	</facility>

<!-- ====================================================================== -->

	<facility id="115w" x="1122.6062298808558" y="753.876413510281">
	</facility>

<!-- ====================================================================== -->

	<facility id="116h" x="4079.988332547095" y="3755.2296251530065">
	</facility>

<!-- ====================================================================== -->

	<facility id="117w" x="1405.4488906191846" y="973.0703459268592">
	</facility>

<!-- ====================================================================== -->

	<facility id="118h" x="555.8989788876443" y="1059.8223763206506">
	</facility>

<!-- ====================================================================== -->

	<facility id="119w" x="4083.4721861600156" y="4319.549661650133">
	</facility>

<!-- ====================================================================== -->

	<facility id="11w" x="3658.5397649595807" y="3738.789413649811">
	</facility>

<!-- ====================================================================== -->

	<facility id="120h" x="3548.2959387578153" y="4245.457622976135">
	</facility>

<!-- ====================================================================== -->

	<facility id="121w" x="574.3761661860597" y="897.6043021311045">
	</facility>

<!-- ====================================================================== -->

	<facility id="122h" x="4078.2697757311676" y="3500.838755748292">
	</facility>

<!-- ====================================================================== -->

	<facility id="123w" x="579.6854955973911" y="1206.9568225135467">
	</facility>

<!-- ====================================================================== -->

	<facility id="124h" x="827.1959163813888" y="1084.7127129102796">
	</facility>

<!-- ====================================================================== -->

	<facility id="125w" x="4136.558440206749" y="3723.7709554347366">
	</facility>

<!-- ====================================================================== -->

	<facility id="126h" x="1403.4369056264734" y="1186.8313202367817">
	</facility>

<!-- ====================================================================== -->

	<facility id="127w" x="4093.7390746032916" y="3863.3619089998515">
	</facility>

<!-- ====================================================================== -->

	<facility id="128h" x="1127.5383431283713" y="707.1936278144235">
	</facility>

<!-- ====================================================================== -->

	<facility id="129w" x="3779.918884145598" y="3724.9811340975916">
	</facility>

<!-- ====================================================================== -->

	<facility id="12h" x="4369.788806932634" y="3790.5238597806433">
	</facility>

<!-- ====================================================================== -->

	<facility id="130h" x="3879.630162929577" y="3992.902012616187">
	</facility>

<!-- ====================================================================== -->

	<facility id="131w" x="606.6316091542212" y="833.2951353552255">
	</facility>

<!-- ====================================================================== -->

	<facility id="132h" x="1197.0695254675484" y="1229.477464962576">
	</facility>

<!-- ====================================================================== -->

	<facility id="133w" x="4279.765957994809" y="3622.5129751499576">
	</facility>

<!-- ====================================================================== -->

	<facility id="134h" x="4433.811441991707" y="3938.5377623084973">
	</facility>

<!-- ====================================================================== -->

	<facility id="135w" x="858.1230351836122" y="763.7701719442468">
	</facility>

<!-- ====================================================================== -->

	<facility id="136h" x="3719.3295834543" y="4355.047424513138">
	</facility>

<!-- ====================================================================== -->

	<facility id="137w" x="929.8702956972515" y="1293.7526591404371">
	</facility>

<!-- ====================================================================== -->

	<facility id="138h" x="4262.849835817134" y="3598.398974439952">
	</facility>

<!-- ====================================================================== -->

	<facility id="139w" x="1116.248017471631" y="1379.6775767306285">
	</facility>

<!-- ====================================================================== -->

	<facility id="13w" x="1199.6552117193953" y="1140.561109906486">
	</facility>

<!-- ====================================================================== -->

	<facility id="140h" x="875.0740024932115" y="957.3574514330247">
	</facility>

<!-- ====================================================================== -->

	<facility id="141w" x="4125.262477162494" y="4308.308829794398">
	</facility>

<!-- ====================================================================== -->

	<facility id="142h" x="875.9653957599121" y="905.9677946487691">
	</facility>

<!-- ====================================================================== -->

	<facility id="143w" x="3873.9926535420873" y="4142.062710203536">
	</facility>

<!-- ====================================================================== -->

	<facility id="144h" x="4347.308876596168" y="3999.8808244008005">
	</facility>

<!-- ====================================================================== -->

	<facility id="145w" x="835.4375228166642" y="1175.5257183236415">
	</facility>

<!-- ====================================================================== -->

	<facility id="146h" x="1246.4197440445857" y="908.1998064033875">
	</facility>

<!-- ====================================================================== -->

	<facility id="147w" x="4349.881775466453" y="3782.285849044127">
	</facility>

<!-- ====================================================================== -->

	<facility id="148h" x="3702.6581283804426" y="4256.495741417283">
	</facility>

<!-- ====================================================================== -->

	<facility id="149w" x="985.2858316448154" y="1019.0905252889512">
	</facility>

<!-- ====================================================================== -->

	<facility id="14h" x="759.7588547779201" y="750.8676479610633">
	</facility>

<!-- ====================================================================== -->

	<facility id="150h" x="1114.3174892272461" y="1139.037242900831">
	</facility>

<!-- ====================================================================== -->

	<facility id="151w" x="4100.537294657962" y="3957.181874392337">
	</facility>

<!-- ====================================================================== -->

	<facility id="152h" x="3833.79246890239" y="3954.810828555467">
	</facility>

<!-- ====================================================================== -->

	<facility id="153w" x="863.3508715928882" y="1287.5048921033008">
	</facility>

<!-- ====================================================================== -->

	<facility id="154h" x="4293.822497221877" y="3946.0970777018297">
	</facility>

<!-- ====================================================================== -->

	<facility id="155w" x="750.9456638885117" y="830.0220242912496">
	</facility>

<!-- ====================================================================== -->

	<facility id="156h" x="3984.3837436250274" y="3785.9191589231414">
	</facility>

<!-- ====================================================================== -->

	<facility id="157w" x="1455.0386062084626" y="1261.9242932317536">
	</facility>

<!-- ====================================================================== -->

	<facility id="158h" x="4032.623559871185" y="4157.764151391495">
	</facility>

<!-- ====================================================================== -->

	<facility id="159w" x="796.259421233261" y="1178.9400109157057">
	</facility>

<!-- ====================================================================== -->

	<facility id="15w" x="4084.312255740844" y="4079.772065288445">
	</facility>

<!-- ====================================================================== -->

	<facility id="160h" x="3719.1667114388656" y="3801.5436398590386">
	</facility>

<!-- ====================================================================== -->

	<facility id="161w" x="1361.8882120343278" y="1256.1402247645556">
	</facility>

<!-- ====================================================================== -->

	<facility id="162h" x="890.5493140487869" y="1083.2780372052532">
	</facility>

<!-- ====================================================================== -->

	<facility id="163w" x="3944.295148183318" y="4341.022059258555">
	</facility>

<!-- ====================================================================== -->

	<facility id="164h" x="3635.309549369129" y="4137.69674877582">
	</facility>

<!-- ====================================================================== -->

	<facility id="165w" x="933.7292708655923" y="1193.4164672720167">
	</facility>

<!-- ====================================================================== -->

	<facility id="166h" x="3778.412101375633" y="4210.169646783222">
	</facility>

<!-- ====================================================================== -->

	<facility id="167w" x="1195.8913321298876" y="646.0047861172696">
	</facility>

<!-- ====================================================================== -->

	<facility id="168h" x="927.9699789288836" y="1017.6798141280186">
	</facility>

<!-- ====================================================================== -->

	<facility id="169w" x="3600.037112335409" y="3599.7725580305773">
	</facility>

<!-- ====================================================================== -->

	<facility id="16h" x="1504.2164917496102" y="1249.9603115905643">
	</facility>

<!-- ====================================================================== -->

	<facility id="170h" x="1119.3327603049108" y="881.7997718001764">
	</facility>

<!-- ====================================================================== -->

	<facility id="171w" x="3690.8332711442863" y="4172.167589131379">
	</facility>

<!-- ====================================================================== -->

	<facility id="172h" x="3579.3931808255334" y="3902.4300335911093">
	</facility>

<!-- ====================================================================== -->

	<facility id="173w" x="738.9700616001983" y="730.2428604690002">
	</facility>

<!-- ====================================================================== -->

	<facility id="174h" x="4037.8842815286434" y="4268.607770366127">
	</facility>

<!-- ====================================================================== -->

	<facility id="175w" x="763.1575498406412" y="654.2109042568579">
	</facility>

<!-- ====================================================================== -->

	<facility id="176h" x="688.0760493212142" y="1183.1261115212694">
	</facility>

<!-- ====================================================================== -->

	<facility id="177w" x="4177.298718981543" y="4013.7041405731434">
	</facility>

<!-- ====================================================================== -->

	<facility id="178h" x="772.9248560184224" y="1392.170160028544">
	</facility>

<!-- ====================================================================== -->

	<facility id="179w" x="3609.3319244361755" y="4087.0160584555633">
	</facility>

<!-- ====================================================================== -->

	<facility id="17w" x="4139.4843735177155" y="3977.4247198021963">
	</facility>

<!-- ====================================================================== -->

	<facility id="180h" x="3602.562812831997" y="3820.627108266044">
	</facility>

<!-- ====================================================================== -->

	<facility id="181w" x="891.565500567124" y="799.6518657325271">
	</facility>

<!-- ====================================================================== -->

	<facility id="182h" x="3923.84238188567" y="4282.269717374705">
	</facility>

<!-- ====================================================================== -->

	<facility id="183w" x="666.7188114650783" y="1208.0464103787037">
	</facility>

<!-- ====================================================================== -->

	<facility id="184h" x="840.0173111718717" y="695.777510816292">
	</facility>

<!-- ====================================================================== -->

	<facility id="185w" x="3767.9578595260473" y="3885.3875547040784">
	</facility>

<!-- ====================================================================== -->

	<facility id="186h" x="4329.530351812292" y="4209.60703000028">
	</facility>

<!-- ====================================================================== -->

	<facility id="187w" x="764.4224943737954" y="1311.0461805360997">
	</facility>

<!-- ====================================================================== -->

	<facility id="188h" x="937.493187195927" y="1225.842420726763">
	</facility>

<!-- ====================================================================== -->

	<facility id="189w" x="4094.6857477857247" y="4029.545612339731">
	</facility>

<!-- ====================================================================== -->

	<facility id="18h" x="1141.1048300280013" y="989.8256469588014">
	</facility>

<!-- ====================================================================== -->

	<facility id="190h" x="3598.3499694972224" y="4216.736940045994">
	</facility>

<!-- ====================================================================== -->

	<facility id="191w" x="1360.8258413010863" y="1399.296684647515">
	</facility>

<!-- ====================================================================== -->

	<facility id="192h" x="1423.4708182788122" y="1271.6456803949814">
	</facility>

<!-- ====================================================================== -->

	<facility id="193w" x="4290.6002449900825" y="3592.313210566332">
	</facility>

<!-- ====================================================================== -->

	<facility id="194h" x="752.0236844797819" y="768.9108144265417">
	</facility>

<!-- ====================================================================== -->

	<facility id="195w" x="3792.0740440079057" y="3481.2604999288023">
	</facility>

<!-- ====================================================================== -->

	<facility id="196h" x="804.9364256677414" y="767.7031477430563">
	</facility>

<!-- ====================================================================== -->

	<facility id="197w" x="4108.038927890043" y="3873.1368416101996">
	</facility>

<!-- ====================================================================== -->

	<facility id="198h" x="693.4273681841237" y="1377.9170454976675">
	</facility>

<!-- ====================================================================== -->

	<facility id="199w" x="3812.874268841219" y="4134.526751878138">
	</facility>

<!-- ====================================================================== -->

	<facility id="19w" x="3494.2100087272615" y="4080.378961049225">
	</facility>

<!-- ====================================================================== -->

	<facility id="1w" x="3932.3043019390643" y="3743.997047823507">
	</facility>

<!-- ====================================================================== -->

	<facility id="20h" x="3767.921400009811" y="3926.3327653800966">
	</facility>

<!-- ====================================================================== -->

	<facility id="21w" x="1155.0762593354298" y="1143.3555074651529">
	</facility>

<!-- ====================================================================== -->

	<facility id="22h" x="3828.9446394442098" y="3882.486448765902">
	</facility>

<!-- ====================================================================== -->

	<facility id="23w" x="824.4690679814742" y="1455.9642119162058">
	</facility>

<!-- ====================================================================== -->

	<facility id="24h" x="737.5400394056355" y="990.668285370695">
	</facility>

<!-- ====================================================================== -->

	<facility id="25w" x="4170.633562215356" y="4241.74312512308">
	</facility>

<!-- ====================================================================== -->

	<facility id="26h" x="1199.2763129930713" y="1295.0831693375187">
	</facility>

<!-- ====================================================================== -->

	<facility id="27w" x="3845.7565153689343" y="3697.951350205348">
	</facility>

<!-- ====================================================================== -->

	<facility id="28h" x="4334.952398999122" y="3955.2006964647308">
	</facility>

<!-- ====================================================================== -->

	<facility id="29w" x="614.6831818023859" y="1066.9096630191227">
	</facility>

<!-- ====================================================================== -->

	<facility id="2h" x="1501.7835344921123" y="984.1089031029918">
	</facility>

<!-- ====================================================================== -->

	<facility id="30h" x="1159.3726422292916" y="928.8012791864157">
	</facility>

<!-- ====================================================================== -->

	<facility id="31w" x="4044.833268047746" y="4157.000925737342">
	</facility>

<!-- ====================================================================== -->

	<facility id="32h" x="1011.5088161825099" y="667.8980941726805">
	</facility>

<!-- ====================================================================== -->

	<facility id="33w" x="4130.12749034463" y="3789.64629287461">
	</facility>

<!-- ====================================================================== -->

	<facility id="34h" x="1121.8769913768167" y="757.1511768378964">
	</facility>

<!-- ====================================================================== -->

	<facility id="35w" x="3814.6679814088625" y="4344.636364581691">
	</facility>

<!-- ====================================================================== -->

	<facility id="36h" x="761.8731421527755" y="642.2359958325605">
	</facility>

<!-- ====================================================================== -->

	<facility id="37w" x="4218.321120405336" y="3597.1448871118746">
	</facility>

<!-- ====================================================================== -->

	<facility id="38h" x="1518.7540160761741" y="1149.7044025735445">
	</facility>

<!-- ====================================================================== -->

	<facility id="39w" x="4336.88157351561" y="4144.529195270718">
	</facility>

<!-- ====================================================================== -->

	<facility id="3w" x="3536.3633670795925" y="3840.0854926359157">
	</facility>

<!-- ====================================================================== -->

	<facility id="40h" x="3677.294271656261" y="3625.422187712592">
	</facility>

<!-- ====================================================================== -->

	<facility id="41w" x="952.6065725663645" y="1309.643015664178">
	</facility>

<!-- ====================================================================== -->

	<facility id="42h" x="3452.3638155542394" y="3931.4264874747273">
	</facility>

<!-- ====================================================================== -->

	<facility id="43w" x="919.8756423055888" y="1420.28926062948">
	</facility>

<!-- ====================================================================== -->

	<facility id="44h" x="3498.439406851022" y="3767.859874183757">
	</facility>

<!-- ====================================================================== -->

	<facility id="45w" x="990.947532026919" y="1066.3662877227227">
	</facility>

<!-- ====================================================================== -->

	<facility id="46h" x="676.102030113828" y="852.8264591533277">
	</facility>

<!-- ====================================================================== -->

	<facility id="47w" x="3827.416887111226" y="4344.701832921932">
	</facility>

<!-- ====================================================================== -->

	<facility id="48h" x="1283.2021232007435" y="1343.9625024330016">
	</facility>

<!-- ====================================================================== -->

	<facility id="49w" x="4089.7004762212455" y="3756.5157971974204">
	</facility>

<!-- ====================================================================== -->

	<facility id="4h" x="804.7957419144345" y="776.8136745114687">
	</facility>

<!-- ====================================================================== -->

	<facility id="50h" x="1285.1685200392642" y="1480.837779575891">
	</facility>

<!-- ====================================================================== -->

	<facility id="51w" x="3795.149120221686" y="3942.6892324940045">
	</facility>

<!-- ====================================================================== -->

	<facility id="52h" x="3862.1071328406265" y="3661.8868333730907">
	</facility>

<!-- ====================================================================== -->

	<facility id="53w" x="914.6274401370757" y="902.3375637251688">
	</facility>

<!-- ====================================================================== -->

	<facility id="54h" x="1091.7016703557767" y="733.7290951885518">
	</facility>

<!-- ====================================================================== -->

	<facility id="55w" x="4327.376022121316" y="3934.4150477311364">
	</facility>

<!-- ====================================================================== -->

	<facility id="56h" x="3825.039485249833" y="4389.342401986332">
	</facility>

<!-- ====================================================================== -->

	<facility id="57w" x="627.9762759602752" y="848.1438861953808">
	</facility>

<!-- ====================================================================== -->

	<facility id="58h" x="3830.839897086465" y="4227.087011755966">
	</facility>

<!-- ====================================================================== -->

	<facility id="59w" x="1465.7719909367024" y="1096.698275890653">
	</facility>

<!-- ====================================================================== -->

	<facility id="5w" x="4251.781443687675" y="3607.683206441786">
	</facility>

<!-- ====================================================================== -->

	<facility id="60h" x="601.5138134526969" y="1253.4229972467651">
	</facility>

<!-- ====================================================================== -->

	<facility id="61w" x="3843.866604570907" y="4001.778826269142">
	</facility>

<!-- ====================================================================== -->

	<facility id="62h" x="4047.5697742254956" y="4315.576971421322">
	</facility>

<!-- ====================================================================== -->

	<facility id="63w" x="684.1201284226212" y="712.3331963965531">
	</facility>

<!-- ====================================================================== -->

	<facility id="64h" x="4264.07376521695" y="4262.060726914908">
	</facility>

<!-- ====================================================================== -->

	<facility id="65w" x="751.3835718301967" y="1105.2744984314843">
	</facility>

<!-- ====================================================================== -->

	<facility id="66h" x="4216.784290402866" y="4024.147786165718">
	</facility>

<!-- ====================================================================== -->

	<facility id="67w" x="1319.2044342852673" y="765.2112912825469">
	</facility>

<!-- ====================================================================== -->

	<facility id="68h" x="1426.1984248425795" y="921.4319309047293">
	</facility>

<!-- ====================================================================== -->

	<facility id="69w" x="4134.691298311872" y="4005.6503087625138">
	</facility>

<!-- ====================================================================== -->

	<facility id="6h" x="3866.408657043909" y="4161.283352944954">
	</facility>

<!-- ====================================================================== -->

	<facility id="70h" x="3974.351204175573" y="3530.8683262030145">
	</facility>

<!-- ====================================================================== -->

	<facility id="71w" x="1297.2445418420273" y="954.831666901447">
	</facility>

<!-- ====================================================================== -->

	<facility id="72h" x="957.453359038139" y="1321.8990855177215">
	</facility>

<!-- ====================================================================== -->

	<facility id="73w" x="4209.795070327108" y="4304.672134970649">
	</facility>

<!-- ====================================================================== -->

	<facility id="74h" x="3670.674476879672" y="3935.7235680659724">
	</facility>

<!-- ====================================================================== -->

	<facility id="75w" x="990.986704284566" y="645.9420837983339">
	</facility>

<!-- ====================================================================== -->

	<facility id="76h" x="572.0625723349588" y="942.2076579479399">
	</facility>

<!-- ====================================================================== -->

	<facility id="77w" x="4192.0660833874435" y="4317.145612639634">
	</facility>

<!-- ====================================================================== -->

	<facility id="78h" x="3974.033889911115" y="4188.735836041992">
	</facility>

<!-- ====================================================================== -->

	<facility id="79w" x="864.3843654456639" y="1250.676461749213">
	</facility>

<!-- ====================================================================== -->

	<facility id="7w" x="1125.6998202352183" y="1054.585029971245">
	</facility>

<!-- ====================================================================== -->

	<facility id="80h" x="1409.385471858347" y="1218.020599771305">
	</facility>

<!-- ====================================================================== -->
