<?xml version="1.0" encoding="utf-8"?>
<!DOCTYPE population SYSTEM "http://www.matsim.org/files/dtd/population_v5.dtd">

<population>

<!-- ====================================================================== -->

	<person id="1" employed="no">
		<plan selected="yes">
			<act type="h" link="1112" x="890.0" y="685.0" end_time="07:18:16" />
			<leg mode="car" dep_time="07:18:16" trav_time="00:01:40">
				<route type="links" start_link="1112" end_link="2223" trav_time="00:01:40" distance="1200.0">1112 1222 2223</route>
			</leg>
			<act type="w" link="2223" x="1802.0" y="2782.0" end_time="17:43:36" />
			<leg mode="car" dep_time="17:43:36" trav_time="00:05:00">
				<route type="links" start_link="2223" end_link="1112" trav_time="00:05:00" distance="3600.0">2223 2322 2221 2111 1112</route>
			</leg>
			<act type="h" link="1112" x="890.0" y="685.0" />
		</plan>

	</person>

<!-- ====================================================================== -->

	<person id="10" employed="no">
		<plan selected="yes">
			<act type="h" link="1112" x="689.0" y="703.0" end_time="07:33:16" />
			<leg mode="car" dep_time="07:33:16" trav_time="00:05:00">
				<route type="links" start_link="1112" end_link="3141" trav_time="00:05:00" distance="3600.0">1112 1222 2232 3231 3141</route>
			</leg>
			<act type="w" link="3141" x="3869.0" y="1093.0" end_time="17:47:05" />
			<leg mode="car" dep_time="17:47:05" trav_time="00:00:00">
				<route type="links" start_link="3141" end_link="3141" trav_time="00:00:00" distance="0.0">3141</route>
			</leg>
			<act type="s" link="3141" x="3605.0" y="735.0" end_time="17:54:27" />
			<leg mode="car" dep_time="17:54:27" trav_time="00:05:00">
				<route type="links" start_link="3141" end_link="1112" trav_time="00:05:00" distance="3600.0">3141 4131 3121 2111 1112</route>
			</leg>
			<act type="h" link="1112" x="689.0" y="703.0" />
		</plan>

	</person>

<!-- ====================================================================== -->

	<person id="100" employed="no">
		<plan selected="yes">
			<act type="h" link="1112" x="811.0" y="1440.0" end_time="07:03:59" />
			<leg mode="car" dep_time="07:03:59" trav_time="00:03:20">
				<route type="links" start_link="1112" end_link="2324" trav_time="00:03:20" distance="2400.0">1112 1222 2223 2324</route>
			</leg>
			<act type="w" link="2324" x="1695.0" y="3329.0" end_time="17:41:28" />
			<leg mode="car" dep_time="17:41:28" trav_time="00:06:40">
				<route type="links" start_link="2324" end_link="1112" trav_time="00:06:40" distance="4800.0">2324 2423 2322 2221 2111 1112</route>
			</leg>
			<act type="h" link="1112" x="811.0" y="1440.0" />
		</plan>

	</person>

<!-- ====================================================================== -->

	<person id="101" employed="no">
		<plan selected="yes">
			<act type="h" link="1112" x="768.0" y="1343.0" end_time="07:18:23" />
			<leg mode="car" dep_time="07:18:23" trav_time="00:03:20">
				<route type="links" start_link="1112" end_link="2333" trav_time="00:03:20" distance="2400.0">1112 1222 2223 2333</route>
			</leg>
			<act type="w" link="2333" x="2216.0" y="3031.0" end_time="17:40:42" />
			<leg mode="car" dep_time="17:40:42" trav_time="00:06:40">
				<route type="links" start_link="2333" end_link="1112" trav_time="00:06:40" distance="4800.0">2333 3332 3231 3121 2111 1112</route>
			</leg>
			<act type="h" link="1112" x="768.0" y="1343.0" />
		</plan>

	</person>

<!-- ====================================================================== -->

	<person id="102" employed="no">
		<plan selected="yes">
			<act type="h" link="1112" x="938.0" y="642.0" end_time="07:32:06" />
			<leg mode="transit_walk" trav_time="00:08:27">
				<route type="generic" start_link="1112" end_link="11" trav_time="undefined" distance="NaN"></route>
			</leg>
			<act type="pt interaction" link="11" x="1050.0" y="1050.0" max_dur="00:00:00" />
			<leg mode="pt" trav_time="00:18:26">
				<route type="experimentalPt1" start_link="11" end_link="33" trav_time="undefined" distance="NaN">PT1===1===Blue Line===1to3===3</route>
			</leg>
			<act type="pt interaction" link="33" x="3950.0" y="1050.0" max_dur="00:00:00" />
			<leg mode="transit_walk" trav_time="00:07:24">
				<route type="generic" start_link="33" end_link="3141" trav_time="undefined" distance="NaN"></route>
			</leg>
			<act type="w" link="3141" x="3619.0" y="1217.0" end_time="17:27:24" />
			<leg mode="transit_walk" trav_time="00:04:25">
				<route type="generic" start_link="3141" end_link="4142" trav_time="undefined" distance="NaN"></route>
			</leg>
			<act type="s" link="4142" x="3840.0" y="1205.0" end_time="18:25:10" />
			<leg mode="transit_walk" trav_time="00:03:48">
				<route type="generic" start_link="4142" end_link="33" trav_time="undefined" distance="NaN"></route>
			</leg>
			<act type="pt interaction" link="33" x="3950.0" y="1050.0" max_dur="00:00:00" />
			<leg mode="pt" trav_time="00:10:01">
				<route type="experimentalPt1" start_link="33" end_link="11" trav_time="undefined" distance="NaN">PT1===3===Blue Line===3to1===1</route>
			</leg>
			<act type="pt interaction" link="11" x="1050.0" y="1050.0" max_dur="00:00:00" />
			<leg mode="transit_walk" trav_time="00:08:27">
				<route type="generic" start_link="11" end_link="1112" trav_time="undefined" distance="NaN"></route>
			</leg>
			<act type="h" link="1112" x="938.0" y="642.0" />
		</plan>

	</person>

<!-- ====================================================================== -->

	<person id="103" employed="no">
		<plan selected="yes">
			<act type="h" link="1112" x="653.0" y="1442.0" end_time="07:57:03" />
			<leg mode="transit_walk" trav_time="00:11:09">
				<route type="generic" start_link="1112" end_link="11" trav_time="undefined" distance="NaN"></route>
			</leg>
			<act type="pt interaction" link="11" x="1050.0" y="1050.0" max_dur="00:00:00" />
			<leg mode="pt" trav_time="00:10:07">
				<route type="experimentalPt1" start_link="11" end_link="12" trav_time="undefined" distance="NaN">PT1===1===Blue Line===1to3===2a</route>
			</leg>
			<act type="pt interaction" link="12" x="2050.0" y="2940.0" max_dur="00:00:00" />
			<leg mode="transit_walk" trav_time="00:04:46">
				<route type="generic" start_link="12" end_link="2223" trav_time="undefined" distance="NaN"></route>
			</leg>
			<act type="w" link="2223" x="1923.0" y="2738.0" end_time="17:38:00" />
			<leg mode="transit_walk" trav_time="00:06:30">
				<route type="generic" start_link="2223" end_link="2324" trav_time="undefined" distance="NaN"></route>
			</leg>
			<act type="s" link="2324" x="2021.0" y="3048.0" end_time="17:41:33" />
			<leg mode="transit_walk" trav_time="00:01:51">
				<route type="generic" start_link="2324" end_link="32" trav_time="undefined" distance="NaN"></route>
			</leg>
			<act type="pt interaction" link="32" x="2050.0" y="2960.0" max_dur="00:00:00" />
			<leg mode="pt" trav_time="00:05:35">
				<route type="experimentalPt1" start_link="32" end_link="11" trav_time="undefined" distance="NaN">PT1===2b===Blue Line===3to1===1</route>
			</leg>
			<act type="pt interaction" link="11" x="1050.0" y="1050.0" max_dur="00:00:00" />
			<leg mode="transit_walk" trav_time="00:11:09">
				<route type="generic" start_link="11" end_link="1112" trav_time="undefined" distance="NaN"></route>
			</leg>
			<act type="h" link="1112" x="653.0" y="1442.0" />
		</plan>

	</person>

<!-- ====================================================================== -->

	<person id="104" employed="no">
		<plan selected="yes">
			<act type="h" link="1112" x="842.0" y="914.0" end_time="07:30:53" />
			<leg mode="transit_walk" trav_time="00:04:58">
				<route type="generic" start_link="1112" end_link="11" trav_time="undefined" distance="NaN"></route>
			</leg>
			<act type="pt interaction" link="11" x="1050.0" y="1050.0" max_dur="00:00:00" />
			<leg mode="pt" trav_time="00:13:08">
				<route type="experimentalPt1" start_link="11" end_link="33" trav_time="undefined" distance="NaN">PT1===1===Blue Line===1to3===3</route>
			</leg>
			<act type="pt interaction" link="33" x="3950.0" y="1050.0" max_dur="00:00:00" />
			<leg mode="transit_walk" trav_time="00:08:07">
				<route type="generic" start_link="33" end_link="3141" trav_time="undefined" distance="NaN"></route>
			</leg>
			<act type="w" link="3141" x="3583.0" y="875.0" end_time="17:29:08" />
			<leg mode="transit_walk" trav_time="00:08:07">
				<route type="generic" start_link="3141" end_link="33" trav_time="undefined" distance="NaN"></route>
			</leg>
			<act type="pt interaction" link="33" x="3950.0" y="1050.0" max_dur="00:00:00" />
			<leg mode="pt" trav_time="00:07:44">
				<route type="experimentalPt1" start_link="33" end_link="32" trav_time="undefined" distance="NaN">PT1===3===Blue Line===3to1===2b</route>
			</leg>
			<act type="pt interaction" link="32" x="2050.0" y="2960.0" max_dur="00:00:00" />
			<leg mode="transit_walk" trav_time="00:05:03">
				<route type="generic" start_link="32" end_link="1323" trav_time="undefined" distance="NaN"></route>
			</leg>
			<act type="s" link="1323" x="1807.0" y="3029.0" end_time="18:18:40" />
			<leg mode="transit_walk" trav_time="00:05:03">
				<route type="generic" start_link="1323" end_link="32" trav_time="undefined" distance="NaN"></route>
			</leg>
			<act type="pt interaction" link="32" x="2050.0" y="2960.0" max_dur="00:00:00" />
			<leg mode="pt" trav_time="00:05:16">
				<route type="experimentalPt1" start_link="32" end_link="11" trav_time="undefined" distance="NaN">PT1===2b===Blue Line===3to1===1</route>
			</leg>
			<act type="pt interaction" link="11" x="1050.0" y="1050.0" max_dur="00:00:00" />
			<leg mode="transit_walk" trav_time="00:04:58">
				<route type="generic" start_link="11" end_link="1112" trav_time="undefined" distance="NaN"></route>
			</leg>
			<act type="h" link="1112" x="842.0" y="914.0" />
		</plan>

	</person>

<!-- ====================================================================== -->

	<person id="105" employed="no">
		<plan selected="yes">
			<act type="h" link="1112" x="1198.0" y="1300.0" end_time="07:50:14" />
			<leg mode="transit_walk" trav_time="00:05:48">
				<route type="generic" start_link="1112" end_link="11" trav_time="undefined" distance="NaN"></route>
			</leg>
			<act type="pt interaction" link="11" x="1050.0" y="1050.0" max_dur="00:00:00" />
			<leg mode="pt" trav_time="00:07:17">
				<route type="experimentalPt1" start_link="11" end_link="12" trav_time="undefined" distance="NaN">PT1===1===Blue Line===1to3===2a</route>
			</leg>
			<act type="pt interaction" link="12" x="2050.0" y="2940.0" max_dur="00:00:00" />
			<leg mode="transit_walk" trav_time="00:07:57">
				<route type="generic" start_link="12" end_link="2333" trav_time="undefined" distance="NaN"></route>
			</leg>
			<act type="w" link="2333" x="2436.0" y="3036.0" end_time="17:11:43" />
			<leg mode="transit_walk" trav_time="00:17:56">
				<route type="generic" start_link="2333" end_link="1323" trav_time="undefined" distance="NaN"></route>
			</leg>
			<act type="s" link="1323" x="1562.0" y="3237.0" end_time="17:48:28" />
			<leg mode="transit_walk" trav_time="00:11:13">
				<route type="generic" start_link="1323" end_link="32" trav_time="undefined" distance="NaN"></route>
			</leg>
			<act type="pt interaction" link="32" x="2050.0" y="2960.0" max_dur="00:00:00" />
			<leg mode="pt" trav_time="00:09:18">
				<route type="experimentalPt1" start_link="32" end_link="11" trav_time="undefined" distance="NaN">PT1===2b===Blue Line===3to1===1</route>
			</leg>
			<act type="pt interaction" link="11" x="1050.0" y="1050.0" max_dur="00:00:00" />
			<leg mode="transit_walk" trav_time="00:05:48">
				<route type="generic" start_link="11" end_link="1112" trav_time="undefined" distance="NaN"></route>
			</leg>
			<act type="h" link="1112" x="1198.0" y="1300.0" />
		</plan>

	</person>

<!-- ====================================================================== -->

	<person id="106" employed="no">
		<plan selected="yes">
			<act type="h" link="1121" x="1317.0" y="1308.0" end_time="07:56:50" />
			<leg mode="car" dep_time="07:56:50" trav_time="00:05:00">
				<route type="links" start_link="1121" end_link="1323" trav_time="00:05:00" distance="3600.0">1121 2122 2223 2313 1323</route>
			</leg>
			<act type="w" link="1323" x="1894.0" y="2993.0" end_time="17:01:46" />
			<leg mode="car" dep_time="17:01:46" trav_time="00:05:00">
				<route type="links" start_link="1323" end_link="1121" trav_time="00:05:00" distance="3600.0">1323 2322 2221 2111 1121</route>
			</leg>
			<act type="h" link="1121" x="1317.0" y="1308.0" />
		</plan>

	</person>

<!-- ====================================================================== -->

	<person id="107" employed="no">
		<plan selected="yes">
			<act type="h" link="1121" x="1358.0" y="598.0" end_time="07:39:52" />
			<leg mode="car" dep_time="07:39:52" trav_time="00:05:00">
				<route type="links" start_link="1121" end_link="1323" trav_time="00:05:00" distance="3600.0">1121 2122 2223 2313 1323</route>
			</leg>
			<act type="w" link="1323" x="1766.0" y="2924.0" end_time="17:49:02" />
			<leg mode="car" dep_time="17:49:02" trav_time="00:00:00">
				<route type="links" start_link="1323" end_link="2333" trav_time="00:00:00" distance="0.0">1323 2333</route>
			</leg>
			<act type="s" link="2333" x="2320.0" y="2979.0" end_time="17:58:02" />
			<leg mode="car" dep_time="17:58:02" trav_time="00:06:40">
				<route type="links" start_link="2333" end_link="1121" trav_time="00:06:40" distance="4800.0">2333 3332 3231 3121 2111 1121</route>
			</leg>
			<act type="h" link="1121" x="1358.0" y="598.0" />
		</plan>

	</person>

<!-- ====================================================================== -->

	<person id="108" employed="no">
		<plan selected="yes">
			<act type="h" link="1112" x="618.0" y="987.0" end_time="07:15:14" />
			<leg mode="car" dep_time="07:15:14" trav_time="00:05:00">
				<route type="links" start_link="1112" end_link="3141" trav_time="00:05:00" distance="3600.0">1112 1222 2232 3231 3141</route>
			</leg>
			<act type="w" link="3141" x="3869.0" y="746.0" end_time="17:32:13" />
			<leg mode="car" dep_time="17:32:13" trav_time="00:05:00">
				<route type="links" start_link="3141" end_link="1112" trav_time="00:05:00" distance="3600.0">3141 4131 3121 2111 1112</route>
			</leg>
			<act type="h" link="1112" x="618.0" y="987.0" />
		</plan>

	</person>

<!-- ====================================================================== -->

	<person id="109" employed="no">
		<plan selected="yes">
			<act type="h" link="1112" x="725.0" y="609.0" end_time="07:21:46" />
			<leg mode="transit_walk" trav_time="00:10:57">
				<route type="generic" start_link="1112" end_link="11" trav_time="undefined" distance="NaN"></route>
			</leg>
			<act type="pt interaction" link="11" x="1050.0" y="1050.0" max_dur="00:00:00" />
			<leg mode="pt" trav_time="00:10:36">
				<route type="experimentalPt1" start_link="11" end_link="12" trav_time="undefined" distance="NaN">PT1===1===Blue Line===1to3===2a</route>
			</leg>
			<act type="pt interaction" link="12" x="2050.0" y="2940.0" max_dur="00:00:00" />
			<leg mode="transit_walk" trav_time="00:04:25">
				<route type="generic" start_link="12" end_link="2223" trav_time="undefined" distance="NaN"></route>
			</leg>
			<act type="w" link="2223" x="2134.0" y="2735.0" end_time="17:01:23" />
			<leg mode="transit_walk" trav_time="00:04:48">
				<route type="generic" start_link="2223" end_link="32" trav_time="undefined" distance="NaN"></route>
			</leg>
			<act type="pt interaction" link="32" x="2050.0" y="2960.0" max_dur="00:00:00" />
			<leg mode="pt" trav_time="00:12:48">
				<route type="experimentalPt1" start_link="32" end_link="11" trav_time="undefined" distance="NaN">PT1===2b===Blue Line===3to1===1</route>
			</leg>
			<act type="pt interaction" link="11" x="1050.0" y="1050.0" max_dur="00:00:00" />
			<leg mode="transit_walk" trav_time="00:10:57">
				<route type="generic" start_link="11" end_link="1112" trav_time="undefined" distance="NaN"></route>
			</leg>
			<act type="h" link="1112" x="725.0" y="609.0" />
		</plan>

	</person>

<!-- ====================================================================== -->

	<person id="11" employed="no">
		<plan selected="yes">
			<act type="h" link="1112" x="764.0" y="1021.0" end_time="07:36:00" />
			<leg mode="car" dep_time="07:36:00" trav_time="00:03:20">
				<route type="links" start_link="1112" end_link="2333" trav_time="00:03:20" distance="2400.0">1112 1222 2223 2333</route>
			</leg>
			<act type="w" link="2333" x="2293.0" y="2744.0" end_time="17:56:24" />
			<leg mode="car" dep_time="17:56:24" trav_time="00:03:20">
				<route type="links" start_link="2333" end_link="2223" trav_time="00:03:20" distance="2400.0">2333 3323 2322 2223</route>
			</leg>
			<act type="s" link="2223" x="1979.0" y="2879.0" end_time="18:18:17" />
			<leg mode="car" dep_time="18:18:17" trav_time="00:05:00">
				<route type="links" start_link="2223" end_link="1112" trav_time="00:05:00" distance="3600.0">2223 2322 2221 2111 1112</route>
			</leg>
			<act type="h" link="1112" x="764.0" y="1021.0" />
		</plan>

	</person>

<!-- ====================================================================== -->

	<person id="110" employed="no">
		<plan selected="yes">
			<act type="h" link="1121" x="1447.0" y="917.0" end_time="07:30:26" />
			<leg mode="transit_walk" trav_time="00:08:22">
				<route type="generic" start_link="1121" end_link="11" trav_time="undefined" distance="NaN"></route>
			</leg>
			<act type="pt interaction" link="11" x="1050.0" y="1050.0" max_dur="00:00:00" />
			<leg mode="pt" trav_time="00:04:31">
				<route type="experimentalPt1" start_link="11" end_link="12" trav_time="undefined" distance="NaN">PT1===1===Blue Line===1to3===2a</route>
			</leg>
			<act type="pt interaction" link="12" x="2050.0" y="2940.0" max_dur="00:00:00" />
			<leg mode="transit_walk" trav_time="00:04:16">
				<route type="generic" start_link="12" end_link="2333" trav_time="undefined" distance="NaN"></route>
			</leg>
			<act type="w" link="2333" x="2212.0" y="3080.0" end_time="17:59:59" />
			<leg mode="transit_walk" trav_time="00:04:16">
				<route type="generic" start_link="2333" end_link="12" trav_time="undefined" distance="NaN"></route>
			</leg>
			<act type="pt interaction" link="12" x="2050.0" y="2940.0" max_dur="00:00:00" />
			<leg mode="pt" trav_time="00:14:44">
				<route type="experimentalPt1" start_link="12" end_link="33" trav_time="undefined" distance="NaN">PT1===2a===Blue Line===1to3===3</route>
			</leg>
			<act type="pt interaction" link="33" x="3950.0" y="1050.0" max_dur="00:00:00" />
			<leg mode="transit_walk" trav_time="00:10:03">
				<route type="generic" start_link="33" end_link="3141" trav_time="undefined" distance="NaN"></route>
			</leg>
			<act type="s" link="3141" x="3760.0" y="584.0" end_time="18:35:17" />
			<leg mode="transit_walk" trav_time="00:10:03">
				<route type="generic" start_link="3141" end_link="33" trav_time="undefined" distance="NaN"></route>
			</leg>
			<act type="pt interaction" link="33" x="3950.0" y="1050.0" max_dur="00:00:00" />
			<leg mode="pt" trav_time="00:13:39">
				<route type="experimentalPt1" start_link="33" end_link="11" trav_time="undefined" distance="NaN">PT1===3===Blue Line===3to1===1</route>
			</leg>
			<act type="pt interaction" link="11" x="1050.0" y="1050.0" max_dur="00:00:00" />
			<leg mode="transit_walk" trav_time="00:08:22">
				<route type="generic" start_link="11" end_link="1121" trav_time="undefined" distance="NaN"></route>
			</leg>
			<act type="h" link="1121" x="1447.0" y="917.0" />
		</plan>

	</person>

<!-- ====================================================================== -->

	<person id="111" employed="no">
		<plan selected="yes">
			<act type="h" link="1121" x="1403.0" y="565.0" end_time="07:17:52" />
			<leg mode="transit_walk" trav_time="00:11:59">
				<route type="generic" start_link="1121" end_link="11" trav_time="undefined" distance="NaN"></route>
			</leg>
			<act type="pt interaction" link="11" x="1050.0" y="1050.0" max_dur="00:00:00" />
			<leg mode="pt" trav_time="00:09:08">
				<route type="experimentalPt1" start_link="11" end_link="33" trav_time="undefined" distance="NaN">PT1===1===Blue Line===1to3===3</route>
			</leg>
			<act type="pt interaction" link="33" x="3950.0" y="1050.0" max_dur="00:00:00" />
			<leg mode="transit_walk" trav_time="00:05:37">
				<route type="generic" start_link="33" end_link="3141" trav_time="undefined" distance="NaN"></route>
			</leg>
			<act type="w" link="3141" x="3742.0" y="1239.0" end_time="17:56:38" />
			<leg mode="transit_walk" trav_time="00:05:37">
				<route type="generic" start_link="3141" end_link="33" trav_time="undefined" distance="NaN"></route>
			</leg>
			<act type="pt interaction" link="33" x="3950.0" y="1050.0" max_dur="00:00:00" />
			<leg mode="pt" trav_time="00:16:44">
				<route type="experimentalPt1" start_link="33" end_link="11" trav_time="undefined" distance="NaN">PT1===3===Blue Line===3to1===1</route>
			</leg>
			<act type="pt interaction" link="11" x="1050.0" y="1050.0" max_dur="00:00:00" />
			<leg mode="transit_walk" trav_time="00:11:59">
				<route type="generic" start_link="11" end_link="1121" trav_time="undefined" distance="NaN"></route>
			</leg>
			<act type="h" link="1121" x="1403.0" y="565.0" />
		</plan>

	</person>

<!-- ====================================================================== -->

	<person id="112" employed="no">
		<plan selected="yes">
			<act type="h" link="1112" x="1276.0" y="1447.0" end_time="07:17:51" />
			<leg mode="car" dep_time="07:17:51" trav_time="00:03:20">
				<route type="links" start_link="1112" end_link="2324" trav_time="00:03:20" distance="2400.0">1112 1222 2223 2324</route>
			</leg>
			<act type="w" link="2324" x="1801.0" y="3343.0" end_time="17:03:15" />
			<leg mode="car" dep_time="17:03:15" trav_time="00:06:40">
				<route type="links" start_link="2324" end_link="1112" trav_time="00:06:40" distance="4800.0">2324 2423 2322 2221 2111 1112</route>
			</leg>
			<act type="h" link="1112" x="1276.0" y="1447.0" />
		</plan>

	</person>

<!-- ====================================================================== -->

	<person id="113" employed="no">
		<plan selected="yes">
			<act type="h" link="1112" x="630.0" y="733.0" end_time="07:33:24" />
			<leg mode="car" dep_time="07:33:24" trav_time="00:05:00">
				<route type="links" start_link="1112" end_link="3141" trav_time="00:05:00" distance="3600.0">1112 1222 2232 3231 3141</route>
			</leg>
			<act type="w" link="3141" x="4109.0" y="715.0" end_time="17:02:13" />
			<leg mode="car" dep_time="17:02:13" trav_time="00:00:00">
				<route type="links" start_link="3141" end_link="3141" trav_time="00:00:00" distance="0.0">3141</route>
			</leg>
			<act type="s" link="3141" x="3669.0" y="582.0" end_time="17:14:01" />
			<leg mode="car" dep_time="17:14:01" trav_time="00:05:00">
				<route type="links" start_link="3141" end_link="1112" trav_time="00:05:00" distance="3600.0">3141 4131 3121 2111 1112</route>
			</leg>
			<act type="h" link="1112" x="630.0" y="733.0" />
		</plan>

	</person>

<!-- ====================================================================== -->

	<person id="114" employed="no">
		<plan selected="yes">
			<act type="h" link="1112" x="657.0" y="733.0" end_time="07:27:05" />
			<leg mode="transit_walk" trav_time="00:10:05">
				<route type="generic" start_link="1112" end_link="11" trav_time="undefined" distance="NaN"></route>
			</leg>
			<act type="pt interaction" link="11" x="1050.0" y="1050.0" max_dur="00:00:00" />
			<leg mode="pt" trav_time="00:11:49">
				<route type="experimentalPt1" start_link="11" end_link="33" trav_time="undefined" distance="NaN">PT1===1===Blue Line===1to3===3</route>
			</leg>
			<act type="pt interaction" link="33" x="3950.0" y="1050.0" max_dur="00:00:00" />
			<leg mode="transit_walk" trav_time="00:07:48">
				<route type="generic" start_link="33" end_link="4142" trav_time="undefined" distance="NaN"></route>
			</leg>
			<act type="w" link="4142" x="3879.0" y="1434.0" end_time="17:18:41" />
			<leg mode="transit_walk" trav_time="00:07:48">
				<route type="generic" start_link="4142" end_link="33" trav_time="undefined" distance="NaN"></route>
			</leg>
			<act type="pt interaction" link="33" x="3950.0" y="1050.0" max_dur="00:00:00" />
			<leg mode="pt" trav_time="00:08:30">
				<route type="experimentalPt1" start_link="33" end_link="32" trav_time="undefined" distance="NaN">PT1===3===Blue Line===3to1===2b</route>
			</leg>
			<act type="pt interaction" link="32" x="2050.0" y="2960.0" max_dur="00:00:00" />
			<leg mode="transit_walk" trav_time="00:04:53">
				<route type="generic" start_link="32" end_link="2324" trav_time="undefined" distance="NaN"></route>
			</leg>
			<act type="s" link="2324" x="2166.0" y="3175.0" end_time="17:37:24" />
			<leg mode="transit_walk" trav_time="00:04:53">
				<route type="generic" start_link="2324" end_link="32" trav_time="undefined" distance="NaN"></route>
			</leg>
			<act type="pt interaction" link="32" x="2050.0" y="2960.0" max_dur="00:00:00" />
			<leg mode="pt" trav_time="00:06:42">
				<route type="experimentalPt1" start_link="32" end_link="11" trav_time="undefined" distance="NaN">PT1===2b===Blue Line===3to1===1</route>
			</leg>
			<act type="pt interaction" link="11" x="1050.0" y="1050.0" max_dur="00:00:00" />
			<leg mode="transit_walk" trav_time="00:10:05">
				<route type="generic" start_link="11" end_link="1112" trav_time="undefined" distance="NaN"></route>
			</leg>
			<act type="h" link="1112" x="657.0" y="733.0" />
		</plan>

	</person>

<!-- ====================================================================== -->

	<person id="115" employed="no">
		<plan selected="yes">
			<act type="h" link="1121" x="1262.0" y="979.0" end_time="07:27:45" />
			<leg mode="car" dep_time="07:27:45" trav_time="00:01:40">
				<route type="links" start_link="1121" end_link="3141" trav_time="00:01:40" distance="1200.0">1121 2131 3141</route>
			</leg>
			<act type="w" link="3141" x="3870.0" y="964.0" end_time="17:15:07" />
			<leg mode="car" dep_time="17:15:07" trav_time="00:00:00">
				<route type="links" start_link="3141" end_link="3141" trav_time="00:00:00" distance="0.0">3141</route>
			</leg>
			<act type="s" link="3141" x="3842.0" y="568.0" end_time="17:41:22" />
			<leg mode="car" dep_time="17:41:22" trav_time="00:05:00">
				<route type="links" start_link="3141" end_link="1121" trav_time="00:05:00" distance="3600.0">3141 4131 3121 2111 1121</route>
			</leg>
			<act type="h" link="1121" x="1262.0" y="979.0" />
		</plan>

	</person>

<!-- ====================================================================== -->

	<person id="116" employed="no">
		<plan selected="yes">
			<act type="h" link="1112" x="606.0" y="934.0" end_time="07:27:23" />
			<leg mode="car" dep_time="07:27:23" trav_time="00:05:00">
				<route type="links" start_link="1112" end_link="3141" trav_time="00:05:00" distance="3600.0">1112 1222 2232 3231 3141</route>
			</leg>
			<act type="w" link="3141" x="4134.0" y="961.0" end_time="17:25:05" />
			<leg mode="car" dep_time="17:25:05" trav_time="00:05:00">
				<route type="links" start_link="3141" end_link="1112" trav_time="00:05:00" distance="3600.0">3141 4131 3121 2111 1112</route>
			</leg>
			<act type="h" link="1112" x="606.0" y="934.0" />
		</plan>

	</person>

<!-- ====================================================================== -->

	<person id="117" employed="no">
		<plan selected="yes">
			<act type="h" link="1121" x="1430.0" y="1280.0" end_time="07:34:48" />
			<leg mode="transit_walk" trav_time="00:08:53">
				<route type="generic" start_link="1121" end_link="11" trav_time="undefined" distance="NaN"></route>
			</leg>
			<act type="pt interaction" link="11" x="1050.0" y="1050.0" max_dur="00:00:00" />
			<leg mode="pt" trav_time="00:09:38">
				<route type="experimentalPt1" start_link="11" end_link="12" trav_time="undefined" distance="NaN">PT1===1===Blue Line===1to3===2a</route>
			</leg>
			<act type="pt interaction" link="12" x="2050.0" y="2940.0" max_dur="00:00:00" />
			<leg mode="transit_walk" trav_time="00:05:03">
				<route type="generic" start_link="12" end_link="2223" trav_time="undefined" distance="NaN"></route>
			</leg>
			<act type="w" link="2223" x="2126.0" y="2699.0" end_time="17:37:31" />
			<leg mode="transit_walk" trav_time="00:05:26">
				<route type="generic" start_link="2223" end_link="32" trav_time="undefined" distance="NaN"></route>
			</leg>
			<act type="pt interaction" link="32" x="2050.0" y="2960.0" max_dur="00:00:00" />
			<leg mode="pt" trav_time="00:06:02">
				<route type="experimentalPt1" start_link="32" end_link="11" trav_time="undefined" distance="NaN">PT1===2b===Blue Line===3to1===1</route>
			</leg>
			<act type="pt interaction" link="11" x="1050.0" y="1050.0" max_dur="00:00:00" />
			<leg mode="transit_walk" trav_time="00:08:53">
				<route type="generic" start_link="11" end_link="1121" trav_time="undefined" distance="NaN"></route>
			</leg>
			<act type="h" link="1121" x="1430.0" y="1280.0" />
		</plan>

	</person>

<!-- ====================================================================== -->

	<person id="118" employed="no">
		<plan selected="yes">
			<act type="h" link="1121" x="1186.0" y="692.0" end_time="07:35:58" />
			<leg mode="transit_walk" trav_time="00:07:39">